###############################################################################
# general-purpose litharge
###############################################################################

data_P1
_cell_length_a                     3.99
_cell_length_b                     3.99
_cell_length_c                     5.01
_cell_angle_alpha                  90.
_cell_angle_beta                   90.
_cell_angle_gamma                  90.
_symmetry_space_group_name_H-M     'P 1'
_symmetry_Int_Tables_number        1
loop_
_symmetry_equiv_pos_site_id
_symmetry_equiv_pos_as_xyz
   1   'x, y, z'

loop_
_atom_site_label
_atom_site_type_symbol
_atom_site_fract_x
_atom_site_fract_y
_atom_site_fract_z
O1  O  0.0  0.0  0.0
O2  O  0.5  0.5  0.5  
Pb1 Pb 0.5  0.0  0.77
Pb2 Pb 0.0  0.5  0.23
#End of data_P1

